/batch
/config,noeldb,1     ! force off writing results to database
*get,_wallstrt,active,,time,wall
! ANSYS input file written by Workbench version 2023 R2
! File used for geometry attach: C:\Users\User\AppData\Local\Temp\WB_User_9196_2\wbnew_files\dp0\SYS\DM\SYS.agdb
/title,wbnew--Modal (A5)
! ****** Begin Custom Load Command Snippet ******
/COM, ACT Extensions:
/COM,     LSDYNA, 2023.2
/COM,     5f463412-bd3e-484b-87e7-cbc0a665e474, wbex
/COM,/COM,     ANSYSMotion, 2023.2
/COM,     20180725-3f81-49eb-9f31-41364844c769, wbex
/COM,
! ****** End   Custom Load Command Snippet ******
*DIM,_wb_ProjectScratch_dir,string,248
_wb_ProjectScratch_dir(1) = 'C:\Users\User\AppData\Local\Temp\WB_User_9196_2\_ProjectScratch\Scr72E7\'
*DIM,_wb_SolverFiles_dir,string,248
_wb_SolverFiles_dir(1) = 'C:\Users\User\AppData\Local\Temp\WB_User_9196_2\wbnew_files\dp0\SYS\MECH\'
*DIM,_wb_userfiles_dir,string,248
_wb_userfiles_dir(1) = 'C:\Users\User\AppData\Local\Temp\WB_User_9196_2\wbnew_files\user_files\'
/com,--- Data in consistent MKS units. See Solving Units in the help system for more information.
/units,MKS
/nopr
/wb,file,start              !  signify a WB generated input file
/prep7
! Turn off shape checking because checks already performed inside WB mesher.
! See help system for more information.
SHPP,OFF,,NOWARN
/nolist
etcon,set             ! allow ANSYS to choose best KEYOP's for 180x elements, resets any applicable keyopt to MAPDL defaults
/com,*********** Nodes for the whole assembly ***********
nblock,3,,947
(1i9,3e20.9e3)
        1     0.000000000E+00     1.000000000E+00     0.000000000E+00
        2     0.000000000E+00     0.000000000E+00     0.000000000E+00
        3     0.000000000E+00     9.500000000E-01     0.000000000E+00
        4     0.000000000E+00     9.000000000E-01     0.000000000E+00
        5     0.000000000E+00     8.500000000E-01     0.000000000E+00
        6     0.000000000E+00     8.000000000E-01     0.000000000E+00
        7     0.000000000E+00     7.500000000E-01     0.000000000E+00
        8     0.000000000E+00     7.000000000E-01     0.000000000E+00
        9     0.000000000E+00     6.500000000E-01     0.000000000E+00
       10     0.000000000E+00     6.000000000E-01     0.000000000E+00
       11     0.000000000E+00     5.500000000E-01     0.000000000E+00
       12     0.000000000E+00     5.000000000E-01     0.000000000E+00
       13     0.000000000E+00     4.500000000E-01     0.000000000E+00
       14     0.000000000E+00     4.000000000E-01     0.000000000E+00
       15     0.000000000E+00     3.500000000E-01     0.000000000E+00
       16     0.000000000E+00     3.000000000E-01     0.000000000E+00
       17     0.000000000E+00     2.500000000E-01     0.000000000E+00
       18     0.000000000E+00     2.000000000E-01     0.000000000E+00
       19     0.000000000E+00     1.500000000E-01     0.000000000E+00
       20     0.000000000E+00     1.000000000E-01     0.000000000E+00
! ... 842 like lines cut
/wb,elem,start            !  set before creation of elements
/com,*********** Elements for Body 1 "Surface Body" ***********
et,1,181
keyo,1,1,0       ! bending and membrane stiffness
keyo,1,3,2
eblock,19,solid,,800
(19i9)
        1        1        1        1        0        0        0        0        4        0        1      121      148      147      122
        1        1        1        1        0        0        0        0        4        0        2      122      168      167      121
        1        1        1        1        0        0        0        0        4        0        3      121      861      149      148
        1        1        1        1        0        0        0        0        4        0        4      121      167      166      861
        1        1        1        1        0        0        0        0        4        0        5      122      123      819      168
        1        1        1        1        0        0        0        0        4        0        6      122      147      146      123
        1        1        1        1        0        0        0        0        4        0        7      861      124      150      149
        1        1        1        1        0        0        0        0        4        0        8      861      166      165      124
        1        1        1        1        0        0        0        0        4        0        9      123      125      169      819
        1        1        1        1        0        0        0        0        4        0       10      123      146      145      125
        1        1        1        1        0        0        0        0        4        0       11      124      126      151      150
        1        1        1        1        0        0        0        0        4        0       12      124      165      164      126
        1        1        1        1        0        0        0        0        4        0       13      125      859      745      169
        1        1        1        1        0        0        0        0        4        0       14      125      145      746      859
        1        1        1        1        0        0        0        0        4        0       15      126      127      152      151
        1        1        1        1        0        0        0        0        4        0       16      126      164      821      127
        1        1        1        1        0        0        0        0        4        0       17      859      128      170      745
        1        1        1        1        0        0        0        0        4        0       18      859      746      144      128
        1        1        1        1        0        0        0        0        4        0       19      127      129      153      152
        1        1        1        1        0        0        0        0        4        0       20      127      821      163      129
! ... 781 like lines cut
!Material Id = {EA4AE864-4F32-47A3-8993-2168C3BCC6BA}
/wb,elem,end               !  done creating elements
/com,*********** Send User Defined Coordinate System(s) ***********
csys,0
toffst,273.15,  ! Temperature offset from absolute zero
/com,*********** Set Reference Temperature ***********
tref,22.
/wb,mat,start              !  starting to send materials
/com,*********** Send Materials ***********
Temperature = 'TEMP' ! Temperature
MP,DENS,1,3700,	! kg m^-3
MP,ALPX,1,1.2e-05,	! C^-1
MP,C,1,434,	! J kg^-1 C^-1
MP,KXX,1,60.5,	! W m^-1 C^-1
MP,RSVX,1,1.7e-07,	! kg m^3 A^-2 s^-3
MP,EX,1,140000000000,	! Pa
MP,NUXY,1,0.33,
MP,MURX,1,10000,
MP,UVID,1,0ceb4a1e-691a-4175-b634-66de54047378
MP,UMID,1,59002a79-71c2-428e-906b-55d7dbee100e

/wb,mat,end                !  done sending materials
/com,*********** Send Sheet Properties ***********
sectype,1,shell
secdata,1.e-002
secoff,mid

!************************* Model Summary ********************
!Surface Body,	My_Material,	matid,	1
!************************* End Model Summary ********************
! get the diagonal of the bounding box. Needed later for other things
*get,_xmin,node,,mnloc,x
*get,_ymin,node,,mnloc,y
*get,_zmin,node,,mnloc,z
*get,_xmax,node,,mxloc,x
*get,_ymax,node,,mxloc,y
*get,_zmax,node,,mxloc,z
_ASMDIAG=(_xmax-_xmin)*(_xmax-_xmin)+(_ymax-_ymin)*(_ymax-_ymin)+(_zmax-_zmin)*(_zmax-_zmin)
_ASMDIAG=SQRT(_ASMDIAG)
/wb,contact,start          !  starting to send contact
/wb,contact,end            !  done creating contacts
/golist
/wb,load,start             !  starting to send loads
/com,*********** Simple Supports ***********
CMBLOCK,_SIMPLSU,NODE,      120
(8i10)
         1         2         3         4         5         6         7         8
         9        10        11        12        13        14        15        16
        17        18        19        20        21        22        23        24
        25        26        27        28        29        30        31        32
        33        34        35        36        37        38        39        40
        41        42        43        44        45        46        47        48
        49        50        51        52        53        54        55        56
        57        58        59        60        61        62        63        64
        65        66        67        68        69        70        71        72
        73        74        75        76        77        78        79        80
        81        82        83        84        85        86        87        88
        89        90        91        92        93        94        95        96
        97        98        99       100       101       102       103       104
       105       106       107       108       109       110       111       112
       113       114       115       116       117       118       119       120

cmsel,s,_SIMPLSU
d,all,ux,0
d,all,uy,0
d,all,uz,0
nsel,all
/gst,on,on
fini
*get,_numnode,node,0,count
*get,_numelem,elem,0,count
*get, _MAXELEMNUM, elem, 0, NUM, MAX
*get, _MAXNODENUM, node, 0, NUM, MAX
*get, _MAXELEMTYPE, etyp, 0, NUM, MAX
*get, _MAXREALCONST, rcon, 0, NUM, MAX
/go
/wb,load,end               !  done creating loads
/com,--- Number of total nodes = %_numnode%
/com,--- Number of contact elements = 0
/com,--- Number of spring elements = 0
/com,--- Number of bearing elements = 0
/com,--- Number of solid elements = 800
/com,--- Number of condensed parts = 0
/com,--- Number of total elements = %_numelem%
*get,_wallbsol,active,,time,wall
/solu
antype,2                   ! modal analysis
_thickRatio=  0     ! Ratio of thick parts in the model
modopt,lanb,30
outres,erase
outres,all,none
outres,nsol,all
mxpand                    ! default expand in case of complex solution
dmpopt,esav,no
dmpopt,emat,no
dmpopt,full,no
! *********** WB SOLVE COMMAND ***********
! check interactive state
*get,ANSINTER_,active,,int
*if,ANSINTER_,ne,0,then
/eof
*endif
solve
/com *************** Write FE CONNECTORS ********* 
CEWRITE,file,ce,,INTE
*get,_nmodalsolproc,active,0,numcpu
fini
/nopr
*get,_numnode,node,0,count
*get,_numelem,elem,0,count
*get, _MAXELEMNUM, elem, 0, NUM, MAX
*get, _MAXNODENUM, node, 0, NUM, MAX,,,INTERNAL
*get, _MAXELEMTYPE, etyp, 0, NUM, MAX
*get, _MAXREALCONST, rcon, 0, NUM, MAX
*get,_NSOLTHREADS,active,0,ntfs
*get,_NSOLPROCESSES,active,0,npfs
/gopr
*get,_wallasol,active,,time,wall
/post1
/nopr
*dim,_direction,CHAR,6,1
_direction(1) = 'X'
_direction(2) = 'Y'
_direction(3) = 'Z'
_direction(4) = 'ROTX'
_direction(5) = 'ROTY'
_direction(6) = 'ROTZ'
*get,_lastLS,active,0,set,LSTP
*get,_beginset,active,0,set,nset,first,_lastLS
*get,_endset,active,0,set,nset,last,_lastLS
_nummodes = 0
*if,_endset,gt,0,then
_nummodes = _endset - _beginset + 1
*endif
*do,i_mode,1,_nummodes
   *do,j_component,1,6
			*get,PFACT_%i_mode%_%j_component%,MODE,%i_mode%,PFACT,,DIREC,_direction(%j_component%)
   *enddo
*enddo
*dim,_tmdirection,CHAR,6,1
_tmdirection(1) = 'X'
_tmdirection(2) = 'Y'
_tmdirection(3) = 'Z'
_tmdirection(4) = 'X'
_tmdirection(5) = 'Y'
_tmdirection(6) = 'Z'
*do,j_component,1,6
    *if,j_component,gt,3,then
        *get,TOTALMASS_%j_component%,ELEM,0,IOR,_tmdirection(%j_component%)
    *else
        *get,TOTALMASS_%j_component%,ELEM,0,MTOT,_tmdirection(%j_component%)
    *endif
*enddo
/gopr
xmlo,ENCODING,ISO-8859-1
xmlo,parm
/xml,parm,xml
fini
/gopr
*get,_walldone,active,,time,wall
_preptime=(_wallbsol-_wallstrt)*3600
_solvtime=(_wallasol-_wallbsol)*3600
_posttime=(_walldone-_wallasol)*3600
_totaltim=(_walldone-_wallstrt)*3600
*get,_dlbratio,active,0,solu,dlbr
*get,_combtime,active,0,solu,comb
*get,_ssmode,active,0,solu,ssmm
*get,_ndofs,active,0,solu,ndof
/fclean				!clean distributed files
/com,--- Total number of nodes = %_numnode%
/com,--- Total number of elements = %_numelem%
/com,--- Element load balance ratio = %_dlbratio%
/com,--- Time to combine distributed files = %_combtime%
/com,--- Sparse memory mode = %_ssmode%
/com,--- Number of DOF = %_ndofs%
/wb,file,end               ! done with WB generated input
